Version 4
SHEET 1 880 680
WIRE 64 64 64 48
WIRE 176 64 64 64
WIRE 160 96 160 48
WIRE 160 96 32 96
WIRE 176 96 176 64
WIRE 192 96 176 96
WIRE 112 128 112 48
WIRE 112 128 0 128
WIRE 224 128 112 128
TEXT 64 -48 Left 2 ;ZTE455E
TEXT -48 96 Left 2 ;CH0
TEXT 64 0 VRight 1 ;1.OUT
TEXT 112 0 VRight 1 ;2.GND
TEXT 160 16 VRight 1 ;3.IN
TEXT 232 96 Left 2 ;CH1
TEXT -104 -96 Left 2 ;CH0-DUT-CH1
RECTANGLE Normal 176 48 48 -64
RECTANGLE Normal 0 128 -112 64
RECTANGLE Normal 32 112 0 80
RECTANGLE Normal 336 128 224 64
RECTANGLE Normal 224 112 192 80
